40

 C    0.196396    1.206120    1.726374
 C    -0.487668    2.142699    0.944608
 C    -1.829438    1.915044    0.637745
 C    -2.496460    0.772369    1.091783
 C    -1.800000    -0.140586    1.883592
 C    -0.458875    0.074289    2.194564
 H    1.251189    1.355589    1.937923
 H    -2.363634    2.619992    0.001284
 H    -2.303430    -1.034383    2.244982
 H    0.083376    -0.657182    2.786678
 C    -3.907418    0.474457    0.659185
 H    -4.525738    1.376626    0.661873
 H    -4.366188    -0.250128    1.338240
 C    0.185623    3.405694    0.441794
 H    -0.357946    3.808261    -0.420588
 H    0.150488    4.176592    1.219834
 S    -4.052145    -0.172293    -1.058976
 S    1.955422    3.287928    0.019710
 C    -2.784370    -1.485639    -0.994693
 H    -2.778415    -1.889863    0.022208
 H    -3.124722    -2.284361    -1.659382
 C    1.879436    2.508293    -1.628500
 H    2.924648    2.417049    -1.942355
 H    1.400637    3.209968    -2.318928
 C    1.159736    1.163365    -1.708173
 H    0.121005    1.314393    -1.404298
 H    1.119875    0.869467    -2.766830
 C    -1.389298    -0.979631    -1.381959
 H    -1.307923    0.055465    -1.050770
 H    -1.298962    -0.955978    -2.475779
 C    -0.247392    -1.744952    -0.765568
 C    -0.343335    -2.988889    -0.223701
 C    1.082627    -1.201981    -0.591026
 H    -1.211248    -3.634741    -0.205660
 C    1.902317    -2.073975    0.100122
 C    1.763408    0.035629    -0.910742
 C    3.036158    0.027420    -0.429976
 S    1.125542    -3.553176    0.525386
 S    3.474074    -1.435755    0.404748
 H    3.772017    0.817612    -0.494887
